LAMMPS (29 Oct 2020)
units           metal
dimension       3
boundary        p p p
atom_style      atomic
atom_modify     sort 0 0.0    # turn off sorting of the coordinates
read_data       fcc.data
Reading data file ...
  orthogonal box = (0.0000000 0.0000000 0.0000000) to (7.3000000 7.3000000 7.3000000)
  reading atoms ...
  32 atoms

# initialize system

velocity	all create 300.0 87287 loop geom

pair_style      zero 7.0
pair_coeff	* *

neighbor        1.0 bin
neigh_modify    every 1 delay 0 check yes

variable	dt equal 0.001
timestep        0.001
dump		equil all xyz 100 equil.xyz
dump_modify     equil element Ni Nb

fix             integ all nve
python          post_force_callback file animpiuq.py
fix             2 all python/torch 1 post_force post_force_callback
fix_modify      2 energy yes

thermo      	100
thermo_style 	custom step temp ke pe press pxx pyy pzz lx ly lz
thermo_modify   norm no flush yes

fix	        emin all box/relax iso 0.0
min_style       cg
min_modify      dmax 0.2
min_modify      line quadratic
minimize        0.0 1.0e-8 1000 10000
  update every 1 steps, delay 0 steps, check yes
Step Temp KinEng PotEng Press Pxx Pyy Pzz Lx Ly Lz
0          300    1.2021193   -9.4128123   -168700.83   -168488.09   -169588.94   -168025.45          7.3          7.3          7.3
Loop time of 25.0523 on 1 procs for 382 steps with 32 atoms

Minimization stats:
  Stopping criterion = linesearch alpha is zero
  Energy initial, next-to-last, final =
  Force two-norm initial, final = 125.28862 0.013784925
  Force max component initial, final = 125.28862 0.0019773963
  Final line search alpha, max atom move = 6.1035156e-05 1.2069069e-07
  Iterations, force evaluations = 382 411

unfix		emin

fix             therm   all langevin  300.0 300.0  0.1 699483
fix	        moment  all momentum 100 linear 1 1 1 angular

run 		100
Step Temp KinEng PotEng Press Pxx Pyy Pzz Lx Ly Lz
382          300    1.2021193    -12.22036    3709.1286    3948.1362    2711.3569    4467.8926    7.0221239    7.0221239    7.0221239
Loop time of 8.59614 on 1 procs for 100 steps with 32 atoms

unfix		therm
unfix		moment
fix             therm all temp/berendsen  300.0 300.0 0.1

run		1000
Step Temp KinEng PotEng Press Pxx Pyy Pzz Lx Ly Lz
482    245.88021   0.98525786   -11.256984    18620.557    18020.812    19228.631    18612.229    7.0221239    7.0221239    7.0221239
Averages over the last 6 of 12 rows, steps 1000 to 1482:
Temp KinEng PotEng Press Pxx Pyy Pzz Lx Ly Lz
298.361 1.19555 -11.0326 22237 22242.5 21890.7 22577.9 7.02212 7.02212 7.02212
Loop time of 85.4454 on 1 procs for 1000 steps with 32 atoms

undump		equil

thermo      	100
thermo_style 	custom step temp ke pe press pxx pyy pzz lx ly xy
thermo_modify   norm no flush yes
################# ENERGY MINIZATION ###################################
variable        vir0 equal pxx
variable        vir1 equal pyy
variable        vir2 equal pzz
variable        vir3 equal pxy
variable        vir4 equal pxz
variable        vir5 equal pyz

variable 	 tmp equal "lx"
variable 	 tmpv equal "vol"

variable	 V0 equal 346.262498403503
variable 	 L0 equal 7.02212386936815

variable 	 strain equal "(lx - v_L0)/v_L0"
variable 	 p1 equal "v_strain"
variable         p2 equal "-pxx*1.0e-4"
variable         p3 equal "-pyy*1.0e-4"
variable 	 p4 equal "-pzz*1.0e-4"
variable         p5 equal "lx"
variable         pot equal "pe"

fix              stretch all deform 10 x vel 0.2 remap none
run		 20000
Step Temp KinEng PotEng Press Pxx Pyy Pzz Lx Ly Xy
1482    291.77703    1.1691694   -10.972876      22958.1    25487.121     21789.05     21598.13    7.0221239    7.0221239            0
Averages over the last 101 of 202 rows, steps 11500 to 21482:
Temp KinEng PotEng Press Pxx Pyy Pzz Lx Ly Xy
308.551 1.23639 5.29724 -154514 -151624 -164595 -147322 10.0257 7.02212 0
Loop time of 1154.65 on 1 procs for 20000 steps with 32 atoms
